Program Version,EnergyPlus, Version 9.6.0-f420c06a69, YMD=2022.10.04 15:23,
   ** Warning ** Weather file location will be used rather than entered (IDF) Location object.
   **   ~~~   ** ..Location object=DENVER_STAPLETON_CO_USA_WMO_724690
   **   ~~~   ** ..Weather File Location=San Francisco Intl Ap CA USA TMY3 WMO#=724940
   **   ~~~   ** ..due to location differences, Latitude difference=[2.15] degrees, Longitude difference=[17.53] degrees.
   **   ~~~   ** ..Time Zone difference=[1.0] hour(s), Elevation difference=[99.88] percent, [1609.00] meters.
   ** Warning ** SetUpDesignDay: Entered DesignDay Barometric Pressure=83411 differs by more than 10% from Standard Barometric Pressure=101301.
   **   ~~~   ** ...occurs in DesignDay=DENVER_STAPLETON ANN HTG 99.6% CONDNS DB, Standard Pressure (based on elevation) will be used.
   ** Warning ** SetUpDesignDay: Entered DesignDay Barometric Pressure=83411 differs by more than 10% from Standard Barometric Pressure=101301.
   **   ~~~   ** ...occurs in DesignDay=DENVER_STAPLETON ANN CLG .4% CONDNS DB=>MWB, Standard Pressure (based on elevation) will be used.
   ************* Testing Individual Branch Integrity
   ************* All Branches passed integrity testing
   ************* Testing Individual Supply Air Path Integrity
   ************* All Supply Air Paths passed integrity testing
   ************* Testing Individual Return Air Path Integrity
   ************* All Return Air Paths passed integrity testing
   ************* No node connection errors were found.
   ************* Beginning Simulation
   ************* Simulation Error Summary *************
   ************* EnergyPlus Warmup Error Summary. During Warmup: 0 Warning; 0 Severe Errors.
   ************* EnergyPlus Sizing Error Summary. During Sizing: 0 Warning; 0 Severe Errors.
   ************* EnergyPlus Completed Successfully-- 3 Warning; 0 Severe Errors; Elapsed Time=00hr 00min  0.20sec
